
	Building GPGPU-Sim version 4.0.0 (build gpgpu-sim_git-commit-d4733b4bc767c18bd8a00ae6e724d9a1231e477f_modified_7.0) with CUDA version 9.1

if [ ! -d lib/gcc-6.5.0/cuda-9010/release ]; then mkdir -p lib/gcc-6.5.0/cuda-9010/release; fi;
if [ ! -d /u/ishitac/gpgpusim-codes/fast/gpgpu-sim_distribution/build/gcc-6.5.0/cuda-9010/release/libcuda ]; then mkdir -p /u/ishitac/gpgpusim-codes/fast/gpgpu-sim_distribution/build/gcc-6.5.0/cuda-9010/release/libcuda; fi;
if [ ! -d /u/ishitac/gpgpusim-codes/fast/gpgpu-sim_distribution/build/gcc-6.5.0/cuda-9010/release/cuda-sim ]; then mkdir -p /u/ishitac/gpgpusim-codes/fast/gpgpu-sim_distribution/build/gcc-6.5.0/cuda-9010/release/cuda-sim; fi;
if [ ! -d /u/ishitac/gpgpusim-codes/fast/gpgpu-sim_distribution/build/gcc-6.5.0/cuda-9010/release/cuda-sim/decuda_pred_table ]; then mkdir -p /u/ishitac/gpgpusim-codes/fast/gpgpu-sim_distribution/build/gcc-6.5.0/cuda-9010/release/cuda-sim/decuda_pred_table; fi;
if [ ! -d /u/ishitac/gpgpusim-codes/fast/gpgpu-sim_distribution/build/gcc-6.5.0/cuda-9010/release/gpgpu-sim ]; then mkdir -p /u/ishitac/gpgpusim-codes/fast/gpgpu-sim_distribution/build/gcc-6.5.0/cuda-9010/release/gpgpu-sim; fi;
if [ ! -d /u/ishitac/gpgpusim-codes/fast/gpgpu-sim_distribution/build/gcc-6.5.0/cuda-9010/release/libopencl ]; then mkdir -p /u/ishitac/gpgpusim-codes/fast/gpgpu-sim_distribution/build/gcc-6.5.0/cuda-9010/release/libopencl; fi;
if [ ! -d /u/ishitac/gpgpusim-codes/fast/gpgpu-sim_distribution/build/gcc-6.5.0/cuda-9010/release/libopencl/bin ]; then mkdir -p /u/ishitac/gpgpusim-codes/fast/gpgpu-sim_distribution/build/gcc-6.5.0/cuda-9010/release/libopencl/bin; fi;
if [ ! -d /u/ishitac/gpgpusim-codes/fast/gpgpu-sim_distribution/build/gcc-6.5.0/cuda-9010/release/intersim2 ]; then mkdir -p /u/ishitac/gpgpusim-codes/fast/gpgpu-sim_distribution/build/gcc-6.5.0/cuda-9010/release/intersim2; fi;
if [ ! -d /u/ishitac/gpgpusim-codes/fast/gpgpu-sim_distribution/build/gcc-6.5.0/cuda-9010/release/cuobjdump_to_ptxplus ]; then mkdir -p /u/ishitac/gpgpusim-codes/fast/gpgpu-sim_distribution/build/gcc-6.5.0/cuda-9010/release/cuobjdump_to_ptxplus; fi;
if [ ! -d /u/ishitac/gpgpusim-codes/fast/gpgpu-sim_distribution/build/gcc-6.5.0/cuda-9010/release/gpuwattch ]; then mkdir -p /u/ishitac/gpgpusim-codes/fast/gpgpu-sim_distribution/build/gcc-6.5.0/cuda-9010/release/gpuwattch; fi;
if [ ! -d /u/ishitac/gpgpusim-codes/fast/gpgpu-sim_distribution/build/gcc-6.5.0/cuda-9010/release/gpuwattch/cacti ]; then mkdir -p /u/ishitac/gpgpusim-codes/fast/gpgpu-sim_distribution/build/gcc-6.5.0/cuda-9010/release/gpuwattch/cacti; fi;
make -C ./src/cuda-sim/ depend
make[1]: Entering directory '/u/ishitac/gpgpusim-codes/fast/gpgpu-sim_distribution/src/cuda-sim'
touch /u/ishitac/gpgpusim-codes/fast/gpgpu-sim_distribution/build/gcc-6.5.0/cuda-9010/release/cuda-sim/Makefile.makedepend
makedepend -f/u/ishitac/gpgpusim-codes/fast/gpgpu-sim_distribution/build/gcc-6.5.0/cuda-9010/release/cuda-sim/Makefile.makedepend -p/u/ishitac/gpgpusim-codes/fast/gpgpu-sim_distribution/build/gcc-6.5.0/cuda-9010/release/cuda-sim/ cuda-sim.cc cuda_device_printf.cc cuda_device_runtime.cc instructions.cc memory.cc ptx-stats.cc ptx_ir.cc ptx_loader.cc ptx_parser.cc ptx_sim.cc 2> /dev/null
make[1]: 'depend' is up to date.
make[1]: Leaving directory '/u/ishitac/gpgpusim-codes/fast/gpgpu-sim_distribution/src/cuda-sim'
make -C ./src/cuda-sim/
make[1]: Entering directory '/u/ishitac/gpgpusim-codes/fast/gpgpu-sim_distribution/src/cuda-sim'
touch /u/ishitac/gpgpusim-codes/fast/gpgpu-sim_distribution/build/gcc-6.5.0/cuda-9010/release/cuda-sim/Makefile.makedepend
makedepend -f/u/ishitac/gpgpusim-codes/fast/gpgpu-sim_distribution/build/gcc-6.5.0/cuda-9010/release/cuda-sim/Makefile.makedepend -p/u/ishitac/gpgpusim-codes/fast/gpgpu-sim_distribution/build/gcc-6.5.0/cuda-9010/release/cuda-sim/ cuda-sim.cc cuda_device_printf.cc cuda_device_runtime.cc instructions.cc memory.cc ptx-stats.cc ptx_ir.cc ptx_loader.cc ptx_parser.cc ptx_sim.cc 2> /dev/null
bison --name-prefix=ptx_ -v -d ptx.y --file-prefix=/u/ishitac/gpgpusim-codes/fast/gpgpu-sim_distribution/build/gcc-6.5.0/cuda-9010/release/cuda-sim/ptx
cat /u/ishitac/gpgpusim-codes/fast/gpgpu-sim_distribution/build/gcc-6.5.0/cuda-9010/release/cuda-sim/ptx.tab.h | grep "=" | sed 's/^[ ]\+//' | sed 's/[=,]//g' | sed 's/\([_A-Z1-9]\+\)[ ]\+\([0-9]\+\)/\1 \1/' | sed 's/^/DEF(/' | sed 's/ /,"/' | sed 's/$/")/' > /u/ishitac/gpgpusim-codes/fast/gpgpu-sim_distribution/build/gcc-6.5.0/cuda-9010/release/cuda-sim/ptx_parser_decode.def
g++  -c -O3 -g3 -Wall -Wno-unused-function -Wno-sign-compare -I/root/cuda/include  -I/u/ishitac/gpgpusim-codes/fast/gpgpu-sim_distribution/build/gcc-6.5.0/cuda-9010/release/cuda-sim/ -I. -I/u/ishitac/gpgpusim-codes/fast/gpgpu-sim_distribution/build/gcc-6.5.0/cuda-9010/release -fPIC  -DTRACING_ON=1 -DCUDART_VERSION=9010 -std=c++0x ptx_parser.cc -o /u/ishitac/gpgpusim-codes/fast/gpgpu-sim_distribution/build/gcc-6.5.0/cuda-9010/release/cuda-sim/ptx_parser.o
g++  -c -O3 -g3 -Wall -Wno-unused-function -Wno-sign-compare -I/root/cuda/include  -I/u/ishitac/gpgpusim-codes/fast/gpgpu-sim_distribution/build/gcc-6.5.0/cuda-9010/release/cuda-sim/ -I. -I/u/ishitac/gpgpusim-codes/fast/gpgpu-sim_distribution/build/gcc-6.5.0/cuda-9010/release -fPIC  -DTRACING_ON=1 -DCUDART_VERSION=9010 -std=c++0x ptx_loader.cc -o /u/ishitac/gpgpusim-codes/fast/gpgpu-sim_distribution/build/gcc-6.5.0/cuda-9010/release/cuda-sim/ptx_loader.o
g++  -c -O3 -g3 -Wall -Wno-unused-function -Wno-sign-compare -I/root/cuda/include  -I/u/ishitac/gpgpusim-codes/fast/gpgpu-sim_distribution/build/gcc-6.5.0/cuda-9010/release/cuda-sim/ -I. -I/u/ishitac/gpgpusim-codes/fast/gpgpu-sim_distribution/build/gcc-6.5.0/cuda-9010/release -fPIC  -DTRACING_ON=1 -DCUDART_VERSION=9010 -std=c++0x cuda_device_printf.cc -o /u/ishitac/gpgpusim-codes/fast/gpgpu-sim_distribution/build/gcc-6.5.0/cuda-9010/release/cuda-sim/cuda_device_printf.o
created /u/ishitac/gpgpusim-codes/fast/gpgpu-sim_distribution/build/gcc-6.5.0/cuda-9010/release/cuda-sim/instructions.h
g++  -c -O3 -g3 -Wall -Wno-unused-function -Wno-sign-compare -I/root/cuda/include  -I/u/ishitac/gpgpusim-codes/fast/gpgpu-sim_distribution/build/gcc-6.5.0/cuda-9010/release/cuda-sim/ -I. -I/u/ishitac/gpgpusim-codes/fast/gpgpu-sim_distribution/build/gcc-6.5.0/cuda-9010/release -fPIC  -DTRACING_ON=1 -DCUDART_VERSION=9010 -std=c++0x instructions.cc -o /u/ishitac/gpgpusim-codes/fast/gpgpu-sim_distribution/build/gcc-6.5.0/cuda-9010/release/cuda-sim/instructions.o
g++  -c -O3 -g3 -Wall -Wno-unused-function -Wno-sign-compare -I/root/cuda/include  -I/u/ishitac/gpgpusim-codes/fast/gpgpu-sim_distribution/build/gcc-6.5.0/cuda-9010/release/cuda-sim/ -I. -I/u/ishitac/gpgpusim-codes/fast/gpgpu-sim_distribution/build/gcc-6.5.0/cuda-9010/release -fPIC  -DTRACING_ON=1 -DCUDART_VERSION=9010 -std=c++0x cuda-sim.cc -o /u/ishitac/gpgpusim-codes/fast/gpgpu-sim_distribution/build/gcc-6.5.0/cuda-9010/release/cuda-sim/cuda-sim.o
g++  -c -O3 -g3 -Wall -Wno-unused-function -Wno-sign-compare -I/root/cuda/include  -I/u/ishitac/gpgpusim-codes/fast/gpgpu-sim_distribution/build/gcc-6.5.0/cuda-9010/release/cuda-sim/ -I. -I/u/ishitac/gpgpusim-codes/fast/gpgpu-sim_distribution/build/gcc-6.5.0/cuda-9010/release -fPIC  -DTRACING_ON=1 -DCUDART_VERSION=9010 -std=c++0x ptx_ir.cc -o /u/ishitac/gpgpusim-codes/fast/gpgpu-sim_distribution/build/gcc-6.5.0/cuda-9010/release/cuda-sim/ptx_ir.o
g++  -c -O3 -g3 -Wall -Wno-unused-function -Wno-sign-compare -I/root/cuda/include  -I/u/ishitac/gpgpusim-codes/fast/gpgpu-sim_distribution/build/gcc-6.5.0/cuda-9010/release/cuda-sim/ -I. -I/u/ishitac/gpgpusim-codes/fast/gpgpu-sim_distribution/build/gcc-6.5.0/cuda-9010/release -fPIC  -DTRACING_ON=1 -DCUDART_VERSION=9010 -std=c++0x ptx_sim.cc -o /u/ishitac/gpgpusim-codes/fast/gpgpu-sim_distribution/build/gcc-6.5.0/cuda-9010/release/cuda-sim/ptx_sim.o
g++  -c -O3 -g3 -Wall -Wno-unused-function -Wno-sign-compare -I/root/cuda/include  -I/u/ishitac/gpgpusim-codes/fast/gpgpu-sim_distribution/build/gcc-6.5.0/cuda-9010/release/cuda-sim/ -I. -I/u/ishitac/gpgpusim-codes/fast/gpgpu-sim_distribution/build/gcc-6.5.0/cuda-9010/release -fPIC  -DTRACING_ON=1 -DCUDART_VERSION=9010 -std=c++0x memory.cc -o /u/ishitac/gpgpusim-codes/fast/gpgpu-sim_distribution/build/gcc-6.5.0/cuda-9010/release/cuda-sim/memory.o
g++  -c -O3 -g3 -Wall -Wno-unused-function -Wno-sign-compare -I/root/cuda/include  -I/u/ishitac/gpgpusim-codes/fast/gpgpu-sim_distribution/build/gcc-6.5.0/cuda-9010/release/cuda-sim/ -I. -I/u/ishitac/gpgpusim-codes/fast/gpgpu-sim_distribution/build/gcc-6.5.0/cuda-9010/release -fPIC  -DTRACING_ON=1 -DCUDART_VERSION=9010 -std=c++0x ptx-stats.cc -o /u/ishitac/gpgpusim-codes/fast/gpgpu-sim_distribution/build/gcc-6.5.0/cuda-9010/release/cuda-sim/ptx-stats.o
g++  -c -O3 -g3 -Wall -Wno-unused-function -Wno-sign-compare -I/root/cuda/include  -I/u/ishitac/gpgpusim-codes/fast/gpgpu-sim_distribution/build/gcc-6.5.0/cuda-9010/release/cuda-sim/ -I. -I/u/ishitac/gpgpusim-codes/fast/gpgpu-sim_distribution/build/gcc-6.5.0/cuda-9010/release -fPIC  -DTRACING_ON=1 -DCUDART_VERSION=9010 -std=c++0x decuda_pred_table/decuda_pred_table.cc -o /u/ishitac/gpgpusim-codes/fast/gpgpu-sim_distribution/build/gcc-6.5.0/cuda-9010/release/cuda-sim/decuda_pred_table/decuda_pred_table.o
g++  -c -O3 -g3 -Wall -Wno-unused-function -Wno-sign-compare -I/root/cuda/include  -I/u/ishitac/gpgpusim-codes/fast/gpgpu-sim_distribution/build/gcc-6.5.0/cuda-9010/release/cuda-sim/ -I. -I/u/ishitac/gpgpusim-codes/fast/gpgpu-sim_distribution/build/gcc-6.5.0/cuda-9010/release -fPIC  -DTRACING_ON=1 -DCUDART_VERSION=9010 -std=c++0x -DYYDEBUG /u/ishitac/gpgpusim-codes/fast/gpgpu-sim_distribution/build/gcc-6.5.0/cuda-9010/release/cuda-sim/ptx.tab.c -o /u/ishitac/gpgpusim-codes/fast/gpgpu-sim_distribution/build/gcc-6.5.0/cuda-9010/release/cuda-sim/ptx.tab.o
flex --outfile=/u/ishitac/gpgpusim-codes/fast/gpgpu-sim_distribution/build/gcc-6.5.0/cuda-9010/release/cuda-sim/lex.ptx_.c ptx.l 
g++  -c -O3 -g3 -Wall -Wno-unused-function -Wno-sign-compare -I/root/cuda/include  -I/u/ishitac/gpgpusim-codes/fast/gpgpu-sim_distribution/build/gcc-6.5.0/cuda-9010/release/cuda-sim/ -I. -I/u/ishitac/gpgpusim-codes/fast/gpgpu-sim_distribution/build/gcc-6.5.0/cuda-9010/release -fPIC  -DTRACING_ON=1 -DCUDART_VERSION=9010 -std=c++0x /u/ishitac/gpgpusim-codes/fast/gpgpu-sim_distribution/build/gcc-6.5.0/cuda-9010/release/cuda-sim/lex.ptx_.c -o /u/ishitac/gpgpusim-codes/fast/gpgpu-sim_distribution/build/gcc-6.5.0/cuda-9010/release/cuda-sim/lex.ptx_.o
bison --name-prefix=ptxinfo_ -v -d ptxinfo.y --file-prefix=/u/ishitac/gpgpusim-codes/fast/gpgpu-sim_distribution/build/gcc-6.5.0/cuda-9010/release/cuda-sim/ptxinfo
g++  -c -O3 -g3 -Wall -Wno-unused-function -Wno-sign-compare -I/root/cuda/include  -I/u/ishitac/gpgpusim-codes/fast/gpgpu-sim_distribution/build/gcc-6.5.0/cuda-9010/release/cuda-sim/ -I. -I/u/ishitac/gpgpusim-codes/fast/gpgpu-sim_distribution/build/gcc-6.5.0/cuda-9010/release -fPIC  -DTRACING_ON=1 -DCUDART_VERSION=9010 -std=c++0x -DYYDEBUG /u/ishitac/gpgpusim-codes/fast/gpgpu-sim_distribution/build/gcc-6.5.0/cuda-9010/release/cuda-sim/ptxinfo.tab.c -o /u/ishitac/gpgpusim-codes/fast/gpgpu-sim_distribution/build/gcc-6.5.0/cuda-9010/release/cuda-sim/ptxinfo.tab.o
flex --outfile=/u/ishitac/gpgpusim-codes/fast/gpgpu-sim_distribution/build/gcc-6.5.0/cuda-9010/release/cuda-sim/lex.ptxinfo_.c ptxinfo.l 
g++  -c -O3 -g3 -Wall -Wno-unused-function -Wno-sign-compare -I/root/cuda/include  -I/u/ishitac/gpgpusim-codes/fast/gpgpu-sim_distribution/build/gcc-6.5.0/cuda-9010/release/cuda-sim/ -I. -I/u/ishitac/gpgpusim-codes/fast/gpgpu-sim_distribution/build/gcc-6.5.0/cuda-9010/release -fPIC  -DTRACING_ON=1 -DCUDART_VERSION=9010 -std=c++0x /u/ishitac/gpgpusim-codes/fast/gpgpu-sim_distribution/build/gcc-6.5.0/cuda-9010/release/cuda-sim/lex.ptxinfo_.c -o /u/ishitac/gpgpusim-codes/fast/gpgpu-sim_distribution/build/gcc-6.5.0/cuda-9010/release/cuda-sim/lex.ptxinfo_.o
g++  -c -O3 -g3 -Wall -Wno-unused-function -Wno-sign-compare -I/root/cuda/include  -I/u/ishitac/gpgpusim-codes/fast/gpgpu-sim_distribution/build/gcc-6.5.0/cuda-9010/release/cuda-sim/ -I. -I/u/ishitac/gpgpusim-codes/fast/gpgpu-sim_distribution/build/gcc-6.5.0/cuda-9010/release -fPIC  -DTRACING_ON=1 -DCUDART_VERSION=9010 -std=c++0x cuda_device_runtime.cc -o /u/ishitac/gpgpusim-codes/fast/gpgpu-sim_distribution/build/gcc-6.5.0/cuda-9010/release/cuda-sim/cuda_device_runtime.o
ar rcs /u/ishitac/gpgpusim-codes/fast/gpgpu-sim_distribution/build/gcc-6.5.0/cuda-9010/release/cuda-sim/libgpgpu_ptx_sim.a /u/ishitac/gpgpusim-codes/fast/gpgpu-sim_distribution/build/gcc-6.5.0/cuda-9010/release/cuda-sim/ptx.tab.o /u/ishitac/gpgpusim-codes/fast/gpgpu-sim_distribution/build/gcc-6.5.0/cuda-9010/release/cuda-sim/lex.ptx_.o /u/ishitac/gpgpusim-codes/fast/gpgpu-sim_distribution/build/gcc-6.5.0/cuda-9010/release/cuda-sim/ptxinfo.tab.o /u/ishitac/gpgpusim-codes/fast/gpgpu-sim_distribution/build/gcc-6.5.0/cuda-9010/release/cuda-sim/lex.ptxinfo_.o /u/ishitac/gpgpusim-codes/fast/gpgpu-sim_distribution/build/gcc-6.5.0/cuda-9010/release/cuda-sim/ptx_parser.o /u/ishitac/gpgpusim-codes/fast/gpgpu-sim_distribution/build/gcc-6.5.0/cuda-9010/release/cuda-sim/ptx_loader.o /u/ishitac/gpgpusim-codes/fast/gpgpu-sim_distribution/build/gcc-6.5.0/cuda-9010/release/cuda-sim/cuda_device_printf.o /u/ishitac/gpgpusim-codes/fast/gpgpu-sim_distribution/build/gcc-6.5.0/cuda-9010/release/cuda-sim/instructions.o /u/ishitac/gpgpusim-codes/fast/gpgpu-sim_distribution/build/gcc-6.5.0/cuda-9010/release/cuda-sim/cuda-sim.o /u/ishitac/gpgpusim-codes/fast/gpgpu-sim_distribution/build/gcc-6.5.0/cuda-9010/release/cuda-sim/ptx_ir.o /u/ishitac/gpgpusim-codes/fast/gpgpu-sim_distribution/build/gcc-6.5.0/cuda-9010/release/cuda-sim/ptx_sim.o  /u/ishitac/gpgpusim-codes/fast/gpgpu-sim_distribution/build/gcc-6.5.0/cuda-9010/release/cuda-sim/memory.o /u/ishitac/gpgpusim-codes/fast/gpgpu-sim_distribution/build/gcc-6.5.0/cuda-9010/release/cuda-sim/ptx-stats.o /u/ishitac/gpgpusim-codes/fast/gpgpu-sim_distribution/build/gcc-6.5.0/cuda-9010/release/cuda-sim/decuda_pred_table/decuda_pred_table.o /u/ishitac/gpgpusim-codes/fast/gpgpu-sim_distribution/build/gcc-6.5.0/cuda-9010/release/cuda-sim/ptx.tab.o /u/ishitac/gpgpusim-codes/fast/gpgpu-sim_distribution/build/gcc-6.5.0/cuda-9010/release/cuda-sim/lex.ptx_.o /u/ishitac/gpgpusim-codes/fast/gpgpu-sim_distribution/build/gcc-6.5.0/cuda-9010/release/cuda-sim/ptxinfo.tab.o /u/ishitac/gpgpusim-codes/fast/gpgpu-sim_distribution/build/gcc-6.5.0/cuda-9010/release/cuda-sim/lex.ptxinfo_.o /u/ishitac/gpgpusim-codes/fast/gpgpu-sim_distribution/build/gcc-6.5.0/cuda-9010/release/cuda-sim/cuda_device_runtime.o
make[1]: Leaving directory '/u/ishitac/gpgpusim-codes/fast/gpgpu-sim_distribution/src/cuda-sim'
make -C ./src/gpgpu-sim/ depend
make[1]: Entering directory '/u/ishitac/gpgpusim-codes/fast/gpgpu-sim_distribution/src/gpgpu-sim'
touch /u/ishitac/gpgpusim-codes/fast/gpgpu-sim_distribution/build/gcc-6.5.0/cuda-9010/release/gpgpu-sim/Makefile.makedepend
makedepend -f/u/ishitac/gpgpusim-codes/fast/gpgpu-sim_distribution/build/gcc-6.5.0/cuda-9010/release/gpgpu-sim/Makefile.makedepend -p/u/ishitac/gpgpusim-codes/fast/gpgpu-sim_distribution/build/gcc-6.5.0/cuda-9010/release/gpgpu-sim/ addrdec.cc dram.cc dram_sched.cc gpu-cache.cc gpu-misc.cc gpu-sim.cc hashing.cc histogram.cc icnt_wrapper.cc l2cache.cc local_interconnect.cc mem_fetch.cc mem_latency_stat.cc power_interface.cc power_stat.cc scoreboard.cc shader.cc stack.cc stat-tool.cc traffic_breakdown.cc visualizer.cc 2> /dev/null
make[1]: 'depend' is up to date.
make[1]: Leaving directory '/u/ishitac/gpgpusim-codes/fast/gpgpu-sim_distribution/src/gpgpu-sim'
make -C ./src/gpgpu-sim/
make[1]: Entering directory '/u/ishitac/gpgpusim-codes/fast/gpgpu-sim_distribution/src/gpgpu-sim'
touch /u/ishitac/gpgpusim-codes/fast/gpgpu-sim_distribution/build/gcc-6.5.0/cuda-9010/release/gpgpu-sim/Makefile.makedepend
makedepend -f/u/ishitac/gpgpusim-codes/fast/gpgpu-sim_distribution/build/gcc-6.5.0/cuda-9010/release/gpgpu-sim/Makefile.makedepend -p/u/ishitac/gpgpusim-codes/fast/gpgpu-sim_distribution/build/gcc-6.5.0/cuda-9010/release/gpgpu-sim/ addrdec.cc dram.cc dram_sched.cc gpu-cache.cc gpu-misc.cc gpu-sim.cc hashing.cc histogram.cc icnt_wrapper.cc l2cache.cc local_interconnect.cc mem_fetch.cc mem_latency_stat.cc power_interface.cc power_stat.cc scoreboard.cc shader.cc stack.cc stat-tool.cc traffic_breakdown.cc visualizer.cc 2> /dev/null
g++  -O3 -g3 -fPIC -DCUDART_VERSION=9010 -Wall -DTRACING_ON=1 -std=c++0x -I/root/cuda/include -I/u/ishitac/gpgpusim-codes/fast/gpgpu-sim_distribution/src/gpuwattch/ -DGPGPUSIM_POWER_MODEL -o /u/ishitac/gpgpusim-codes/fast/gpgpu-sim_distribution/build/gcc-6.5.0/cuda-9010/release/gpgpu-sim/addrdec.o -c addrdec.cc
g++  -O3 -g3 -fPIC -DCUDART_VERSION=9010 -Wall -DTRACING_ON=1 -std=c++0x -I/root/cuda/include -I/u/ishitac/gpgpusim-codes/fast/gpgpu-sim_distribution/src/gpuwattch/ -DGPGPUSIM_POWER_MODEL -o /u/ishitac/gpgpusim-codes/fast/gpgpu-sim_distribution/build/gcc-6.5.0/cuda-9010/release/gpgpu-sim/dram.o -c dram.cc
g++  -O3 -g3 -fPIC -DCUDART_VERSION=9010 -Wall -DTRACING_ON=1 -std=c++0x -I/root/cuda/include -I/u/ishitac/gpgpusim-codes/fast/gpgpu-sim_distribution/src/gpuwattch/ -DGPGPUSIM_POWER_MODEL -o /u/ishitac/gpgpusim-codes/fast/gpgpu-sim_distribution/build/gcc-6.5.0/cuda-9010/release/gpgpu-sim/dram_sched.o -c dram_sched.cc
g++  -O3 -g3 -fPIC -DCUDART_VERSION=9010 -Wall -DTRACING_ON=1 -std=c++0x -I/root/cuda/include -I/u/ishitac/gpgpusim-codes/fast/gpgpu-sim_distribution/src/gpuwattch/ -DGPGPUSIM_POWER_MODEL -o /u/ishitac/gpgpusim-codes/fast/gpgpu-sim_distribution/build/gcc-6.5.0/cuda-9010/release/gpgpu-sim/gpu-cache.o -c gpu-cache.cc
g++  -O3 -g3 -fPIC -DCUDART_VERSION=9010 -Wall -DTRACING_ON=1 -std=c++0x -I/root/cuda/include -I/u/ishitac/gpgpusim-codes/fast/gpgpu-sim_distribution/src/gpuwattch/ -DGPGPUSIM_POWER_MODEL -o /u/ishitac/gpgpusim-codes/fast/gpgpu-sim_distribution/build/gcc-6.5.0/cuda-9010/release/gpgpu-sim/gpu-misc.o -c gpu-misc.cc
g++  -O3 -g3 -fPIC -DCUDART_VERSION=9010 -Wall -DTRACING_ON=1 -std=c++0x -I/root/cuda/include -I/u/ishitac/gpgpusim-codes/fast/gpgpu-sim_distribution/src/gpuwattch/ -DGPGPUSIM_POWER_MODEL -o /u/ishitac/gpgpusim-codes/fast/gpgpu-sim_distribution/build/gcc-6.5.0/cuda-9010/release/gpgpu-sim/gpu-sim.o -c gpu-sim.cc
g++  -O3 -g3 -fPIC -DCUDART_VERSION=9010 -Wall -DTRACING_ON=1 -std=c++0x -I/root/cuda/include -I/u/ishitac/gpgpusim-codes/fast/gpgpu-sim_distribution/src/gpuwattch/ -DGPGPUSIM_POWER_MODEL -o /u/ishitac/gpgpusim-codes/fast/gpgpu-sim_distribution/build/gcc-6.5.0/cuda-9010/release/gpgpu-sim/hashing.o -c hashing.cc
g++  -O3 -g3 -fPIC -DCUDART_VERSION=9010 -Wall -DTRACING_ON=1 -std=c++0x -I/root/cuda/include -I/u/ishitac/gpgpusim-codes/fast/gpgpu-sim_distribution/src/gpuwattch/ -DGPGPUSIM_POWER_MODEL -o /u/ishitac/gpgpusim-codes/fast/gpgpu-sim_distribution/build/gcc-6.5.0/cuda-9010/release/gpgpu-sim/histogram.o -c histogram.cc
g++  -O3 -g3 -fPIC -DCUDART_VERSION=9010 -Wall -DTRACING_ON=1 -std=c++0x -I/root/cuda/include -I/u/ishitac/gpgpusim-codes/fast/gpgpu-sim_distribution/src/gpuwattch/ -DGPGPUSIM_POWER_MODEL -o /u/ishitac/gpgpusim-codes/fast/gpgpu-sim_distribution/build/gcc-6.5.0/cuda-9010/release/gpgpu-sim/icnt_wrapper.o -c icnt_wrapper.cc
g++  -O3 -g3 -fPIC -DCUDART_VERSION=9010 -Wall -DTRACING_ON=1 -std=c++0x -I/root/cuda/include -I/u/ishitac/gpgpusim-codes/fast/gpgpu-sim_distribution/src/gpuwattch/ -DGPGPUSIM_POWER_MODEL -o /u/ishitac/gpgpusim-codes/fast/gpgpu-sim_distribution/build/gcc-6.5.0/cuda-9010/release/gpgpu-sim/l2cache.o -c l2cache.cc
Makefile:93: recipe for target '/u/ishitac/gpgpusim-codes/fast/gpgpu-sim_distribution/build/gcc-6.5.0/cuda-9010/release/gpgpu-sim/l2cache.o' failed
make[1]: Leaving directory '/u/ishitac/gpgpusim-codes/fast/gpgpu-sim_distribution/src/gpgpu-sim'
Makefile:217: recipe for target 'gpgpu-sim_uarch' failed
